Flow Title=Irene2011
Program Version=5.03
Use Restart= 0 
Initial Flow Loc=Potomac         ,Upper           ,187386.9,1810
Initial Flow Loc=Potomac         ,Lower           ,166063.4,8780
Initial Flow Loc=Anacostia       ,Lower           ,17293.75,63
Boundary Location=Potomac         ,Upper           ,187386.9,        ,                ,                ,                ,                
Interval=15MIN
Flow Hydrograph= 2011 
    1810    1810    1810    1810    1810    1810    1810    1810    1810    1810
    1770    1770    1770    1810    1810    1770    1770    1770    1770    1810
    1810    1770    1770    1810    1810    1810    1770    1770    1770    1770
    1810    1770    1770    1770    1770    1770    1770    1720    1770    1770
    1770    1770    1720    1720    1720    1720    1770    1770    1770    1770
    1770    1770    1770    1770    1770    1770    1770    1770    1770    1770
    1770    1770    1770    1770    1770    1770    1770    1770    1770    1770
    1770    1770    1720    1720    1770    1720    1720    1720    1720    1720
    1720    1720    1720    1720    1720    1720    1680    1680    1680    1680
    1680    1680    1680    1680    1680    1680    1680    1680    1680    1680
    1680    1640    1640    1640    1640    1680    1680    1640    1640    1640
    1640    1640    1640    1640    1640    1640    1640    1640    1640    1640
    1640    1640    1640    1640    1640    1640    1640    1640    1640    1640
    1640    1640    1640    1640    1640    1640    1640    1640    1640    1680
    1680    1680    1680    1680    1770    1770    1810    1810    1850    1810
    1850    1850    1850    1890    1850    1850    1850    1850    1850    1890
    1890    1890    1940    1940    1890    1980    2030    1980    1980    2030
    2070    2120    2120    2070    2160    2120    2160    2260    2300    2350
    2400    2500    2550    2500    2450    2600    2600    2550    2750    2960
    3450    3120    3280    3280    3400    3920    3120    3400    3450    3800
    3400    3450    3920    3860    3680    3510    4110    4050    3680    3680
    3630    3740    3800    3800    3800    3860    3980    3980    3980    4050
    4170    4050    3980    3980    3920    3980    3980    3920    3920    3860
    3800    3860    3800    3800    3740    3740    3800    3680    3740    3800
    3800    3740    3800    3740    3740    3800    3740    3740    3740    3740
    3800    3800    3680    3680    3740    3740    3680    3680    3630    3630
    3630    3630    3630    3630    3570    3570    3570    3570    3570    3570
    3570    3510    3510    3510    3510    3510    3450    3450    3450    3450
    3400    3400    3400    3340    3340    3340    3280    3280    3230    3230
    3230    3170    3170    3170    3170    3120    3120    3120    3120    3060
    3060    3060    3060    3060    3060    3010    3010    3010    3010    3010
    3010    2960    2960    2960    2960    2960    2960    2960    2960    2960
    2960    2900    2900    2900    2900    2900    2900    2900    2900    2900
    2900    2900    2900    2900    2900    2900    2900    2850    2850    2850
    2850    2850    2850    2850    2850    2800    2800    2800    2800    2800
    2800    2800    2800    2800    2750    2750    2750    2750    2750    2750
    2700    2700    2700    2700    2700    2650    2650    2650    2650    2650
    2650    2600    2600    2600    2600    2600    2600    2550    2550    2550
    2550    2550    2550    2550    2550    2550    2550    2500    2500    2550
    2500    2550    2550    2500    2500    2550    2550    2550    2550    2550
    2550    2550    2550    2550    2550    2550    2600    2600    2600    2600
    2600    2600    2650    2650    2650    2650    2650    2700    2700    2700
    2700    2700    2700    2700    2750    2750    2750    2750    2750    2750
    2750    2750    2750    2800    2800    2800    2800    2800    2800    2800
    2800    2850    2850    2800    2800    2800    2800    2800    2850    2800
    2800    2800    2800    2800    2800    2800    2800    2800    2800    2800
    2800    2750    2750    2750    2750    2750    2750    2750    2750    2750
    2750    2750    2750    2750    2700    2700    2700    2700    2700    2700
    2700    2700    2700    2700    2700    2700    2700    2650    2650    2650
    2650    2650    2650    2650    2650    2650    2600    2600    2600    2600
    2600    2600    2600    2600    2600    2600    2600    2600    2550    2550
    2550    2550    2550    2550    2550    2550    2550    2500    2500    2500
    2500    2500    2500    2500    2450    2450    2450    2450    2450    2450
    2450    2450    2400    2450    2400    2400    2400    2400    2400    2400
    2400    2400    2350    2350    2400    2400    2400    2350    2350    2350
    2350    2350    2350    2350    2350    2350    2300    2300    2300    2300
    2300    2300    2300    2260    2260    2260    2260    2260    2260    2260
    2260    2210    2210    2210    2210    2210    2210    2210    2210    2210
    2210    2210    2210    2210    2210    2210    2210    2210    2210    2210
    2210    2210    2210    2210    2210    2210    2210    2210    2210    2160
    2160    2160    2160    2160    2160    2160    2160    2160    2160    2160
    2160    2160    2160    2120    2120    2120    2120    2120    2120    2120
    2120    2120    2120    2160    2160    2120    2120    2120    2120    2120
    2120    2120    2120    2120    2120    2070    2070    2070    2070    2070
    2070    2070    2070    2070    2070    2070    2070    2070    2070    2070
    2070    2070    2070    2030    2030    2030    2030    2030    2030    2030
    2030    2030    2030    2030    1980    1980    1980    1980    1980    1980
    1980    1980    1980    1980    1980    1980    1980    1980    1980    1980
    1940    1980    1980    1980    1980    1940    1940    1980    1980    1980
    1980    1980    1980    1980    1980    1980    1980    1980    1980    1980
    2030    2030    1980    2030    2030    2030    1980    1980    1980    1980
    1980    1980    1980    1980    1980    1980    1980    1940    1940    1940
    1940    1940    1940    1940    1940    1940    1940    1940    1940    1940
    1940    1940    1940    1940    1940    1940    1940    1940    1890    1890
    1890    1890    1890    1890    1890    1890    1890    1890    1890    1890
    1890    1890    1890    1890    1890    1890    1890    1890    1890    1890
    1890    1890    1890    1890    1890    1890    1890    1890    1890    1890
    1890    1890    1890    1940    1940    1940    1940    1890    1890    1890
    1940    1940    1940    1940    1940    1940    1940    1940    1890    1940
    1940    1940    1890    1890    1890    1890    1890    1890    1890    1890
    1890    1890    1890    1890    1850    1890    1850    1890    1890    1850
    1890    1850    1850    1850    1850    1850    1850    1850    1850    1850
    1850    1850    1850    1890    1850    1850    1850    1850    1850    1850
    1850    1850    1850    1850    1850    1850    1850    1850    1850    1850
    1850    1850    1850    1850    1850    1850    1850    1850    1850    1850
    1850    1850    1890    1850    1850    1850    1850    1890    1890    1890
    1890    1890    1890    1890    1890    1890    1890    1890    1940    1940
    1940    1940    1940    1980    1980    1980    1980    2030    2030    2070
    2070    2070    2070    2070    2120    2120    2120    2120    2160    2160
    2160    2160    2160    2210    2210    2210    2210    2210    2210    2210
    2260    2260    2260    2260    2260    2260    2260    2260    2260    2210
    2210    2210    2210    2210    2210    2210    2210    2210    2210    2210
    2210    2210    2160    2160    2160    2160    2160    2160    2160    2120
    2120    2120    2120    2120    2120    2120    2120    2120    2120    2070
    2070    2070    2070    2070    2070    2070    2070    2070    2070    2070
    2070    2070    2070    2070    2030    2030    2070    2030    2030    2030
    2030    2030    2030    2030    2030    1980    1980    1980    1980    1980
    1980    1980    1980    1980    1980    1980    1980    1940    1940    1940
    1940    1940    1940    1940    1940    1940    1940    1940    1940    1940
    1940    1940    1980    1980    1940    1940    1940    1940    1940    1940
    1940    1940    1940    1940    1940    1940    1940    1940    1940    1940
    1890    1940    1890    1940    1940    1940    1940    1940    1940    1940
    1940    1940    1940    1940    1940    1940    1940    1940    1940    1890
    1890    1940    1940    1940    1940    1940    1940    1940    1940    1980
    2030    2070    1980    1980    2030    2030    2030    2030    2070    2070
    2120    2210    2260    2400    2550    2650    2700    2800    2850    2900
    2960    3010    3010    3060    3060    3120    3120    3170    3170    3230
    3280    3340    3400    3510    3570    3630    3740    3800    3920    3980
    4110    4230    4290    4420    4550    4680    4810    5010    5150    5220
    5360    5500    5640    5710    5780    5850    5930    6000    6080    6080
    6150    6150    6230    6310    6310    6310    6310    6310    6310    6390
    6390    6470    6470    6470    6470    6470    6550    6550    6470    6550
    6550    6550    6470    6470    6470    6390    6390    6390    6310    6310
    6310    6310    6230    6230    6230    6150    6150    6150    6150    6080
    6080    6080    6000    6000    6000    6000    6000    6000    6000    6000
    6000    6000    6000    6000    5930    5930    5930    5930    5930    5930
    5930    5930    5930    5930    5930    5930    5930    5930    5930    5930
    5930    5930    5930    5930    6000    5930    5930    6000    6000    6000
    6000    6000    6000    6000    6000    6000    6080    6150    6150    6230
    6310    6310    6390    6470    6550    6630    6630    6710    6710    6790
    6950    7120    7280    7540    7790    8060    8230    8410    8500    8590
    8680    8680    8780    8870    8960    9050    9050    9150    9240    9330
    9430    9520    9620    9720    9810    9910   10000   10100   10400   10600
   10700   11100   11500   12400   12800   13700   14000   14200   14300   14500
   14700   14800   14800   14900   14900   14900   15200   15500   15700   15700
   15800   15800   15700   15500   15500   15600   15700   15800   16100   16300
   16400   16600   17000   17300   17500   17700   18000   18200   18400   18600
   18700   19000   19100   19200   19400   19600   19800   20000   20300   20500
   20800   21200   21700   22500   23100   23900   24500   25500   26300   27200
   28300   29500   30700   32400   34900   38600   42700   46600   49600   51200
   52000   52400   52400   52200   52200   53200   55400   58300   62000   66600
   71700   77800   84700   92700   99900  106000  111000  114000  116000  117000
  119000  121000  122000  123000  124000  126000  126000  126000  127000  127000
  127000  126000  127000  126000  126000  125000  124000  123000  122000  120000
  119000  117000  116000  114000  112000  110000  108000  106000  104000  103000
  100000   99300   97400   95800   94000   93200   91100   90300   88200   87700
   85900   85200   84400   83700   82700   81900   80900   80200   79200   78500
   77800   77100   76400   75700   75200   74500   74000   73600   73100   72400
   72200   71700   71300   71100   70800   70600   70400   69900   69700   69000
   68600   68600   67900   67500   67000   66800   66400   65700   65500   65100
   64600   64000   63500   63100   62700   62300   61800   61200   60800   60300
   59700   59500   58900   58500   58100   57600   57000   56400   56200   55600
   55200   54800   54200   53800   53400   53000   52400   52000   51600   51000
   50600   50200   49800   49200   48800   48300   47700   47300   46700   46400
   45800   45400   44900   44500   44000   43400   43000   42500   42100   41600
   41100   40700   40200   39800   39300   39000   38600   38100   37700   37400
   36900   36600   36200   35700   35400   35100   34700   34400   34100   33700
   33400   33200   32900   32800   32400   32100   32000   31700   31500   31300
   31200   31000   30900   30700   30400   30400   30200   30100   29900   29900
   29800   29800   29800   29800   29600   29600   29500   29500   29500   29500
   29500   29500   29500   29500   29500   29500   29500   29600   29600   29600
   29800   29800   29800   29900   29900   30100   30100   30200   30200   30400
   30400   30600   30700   30700   30900   31000   31000   31200   31300   31300
   31500   31700   31800   32000   32100   32300   32300   32400   32600   32600
   32800   32900   33100   33100   33200   33400   33600   33700   33900   33900
   34100   34200   34200   34400   34600   34700   34700   34900   35100   35200
   35200   35400   35400   35400   35500   35500   35500   35700   35700   35700
   35700   35700   35900   35700   35700   35700   35700   35700   35500   35500
   35500   35500   35500   35400   35400   35200   35100   34900   34900   34700
   34700   34700   34600   34400   34200   34100   34100   33900   33900   33900
   33700   33600   33400   33200   32900   32800   32600   32400   32300   32100
   32000   32000   31800   31700   31500   31300   31200   31000   30700   30600
   30400   30100   29900   29800   29600   29500   29200   29000   28700   28600
   28400   28300   28100   28000   27800   27500   27500   27200   27100   26900
   26600   26500   26300   26200   26000   25900   25800   25600   25500   25200
   25000   25000   24800   24800   24600   24300   24200   24100   23900   23600
   23500   23400   23200   23100   22900   22800   22500   22400   22300   22100
   22000   21900   21700   21600   21500   21200   21200   21100   20900   20800
   20700   20500   20400   20300   20100   20000   19900   19800   19600   19600
   19500   19400   19200   19100   19000   18900   18700   18700   18600   18500
   18400   18200   18100   18100   18000   17900   17700   17700   17600   17500
   17500   17400   17300   17100   17100   17000   17000   16900   16900   16800
   16600   16600   16500   16500   16400   16400   16300   16200   16200   16100
   16100   15900   15900   15800   15800   15700   15700   15700   15600   15600
   15500   15500   15400   15400   15200   15200   15200   15100   15100   15000
   15000   14900   14900   14900   14900   14800   14800   14700   14700   14700
   14700   14600   14600   14600   14600   14500   14500   14500   14500   14500
   14300   14300   14300   14300   14200   14200   14200   14200   14200   14100
   14100   14100   14100   14000   14000   14000   14000   13900   13900   13900
   13900   13800   13800   13800   13800   13700   13700   13600   13600   13600
   13500   13500   13400   13400   13400   13200   13200   13100   13100   13100
   13000   13000   13000   12900   12900   12800   12800   12800   12700   12700
   12700   12600   12600   12600   12500   12500   12500   12400   12400   12400
   12300   12300   12300   12300   12200   12200   12200   12100   12100   12100
   12000   12000   12000   11900   11900   11900   11800   11800   11800   11800
   11700   11700   11700   11600   11600   11600   11500   11500   11400   11400
   11400   11300   11300   11300   11200   11200   11200   11100   11100   11100
   11000   11000   11000   11000   10900   10900   10900   10800   10800   10800
   10800   10800   10700   10700   10700   10700   10600   10600   10600   10500
   10500   10500   10500   10400   10400   10400   10300   10300   10300   10300
   10200   10200   10200   10200   10200   10100   10100   10100   10100   10000
   10000   10000   10000    9910    9910    9910   10000    9910    9910    9810
    9810    9810    9810    9810    9810    9810    9810    9810    9810    9810
    9810    9810    9810    9810    9810    9810    9810    9810    9810    9810
    9810    9810    9910    9910    9910    9910   10000   10000    9910    9910
    9910    9910    9810    9810    9810    9810    9810    9910    9910    9910
    9910    9910    9910    9910    9810    9810    9810    9810    9720    9720
    9720    9720    9720    9720    9720    9620    9720    9720    9620    9620
    9520    9520    9620    9520    9430    9520    9330    9430    9430    9330
    9430    9330    9330    9330    9330    9330    9240    9240    9240    9150
    9150    9150    9050    9050    8960    8960    8960    8870    8870    8780
    8780
DSS Path=
Use DSS=False
Use Fixed Start Time=True
Fixed Start Date/Time=26AUG2011,0:00
Is Critical Boundary=False
Critical Boundary Flow=
Boundary Location=Potomac         ,Lower           ,8821.243,        ,                ,                ,                ,                
Interval=6MIN
Stage Hydrograph= 5040 
   1.151   1.181    1.23   1.243   1.276   1.269   1.279   1.269   1.253   1.272
   1.269   1.272   1.269   1.256   1.276   1.361   1.456   1.535   1.578   1.633
    1.65   1.673   1.699   1.761   1.801   1.834    1.83   1.837   1.889   1.925
   1.935   1.948   1.948   1.975   1.998   1.994   2.004   1.981   1.945   1.896
   1.837    1.82   1.791   1.751   1.745   1.702   1.683   1.663    1.63    1.61
   1.604   1.551   1.532   1.515   1.443     1.4   1.358   1.305   1.302   1.289
   1.246   1.233    1.21   1.161   1.141   1.118   1.099   1.072    1.03    .997
    .948    .912    .889    .846     .83    .807    .771    .744    .715    .682
    .672    .646    .626    .597    .561    .541    .515    .501    .482    .462
    .442    .433    .416      .4    .383    .367     .37    .377    .364    .367
    .364     .37     .39    .406     .41    .413    .429    .436    .449    .449
    .479    .508    .528    .538    .547    .567    .593     .61    .623    .672
    .698    .725    .767     .79    .807    .849    .862    .892    .921    .964
    .994   1.026   1.059   1.092   1.115   1.158   1.184   1.217   1.243   1.256
   1.286   1.295   1.325   1.338   1.354   1.377   1.377   1.391   1.407    1.44
   1.469   1.492   1.502   1.519   1.532   1.545   1.548   1.555   1.568   1.561
   1.555   1.558   1.558   1.551   1.542   1.522   1.522   1.512   1.515   1.496
   1.476   1.463   1.417   1.387   1.361   1.341   1.322   1.286   1.253    1.23
   1.204   1.174   1.148   1.122   1.085    1.04     .99    .961    .931    .898
    .859    .823    .787    .744    .718    .685    .666    .633      .6    .561
    .538    .515    .492    .462    .446    .419     .39    .374    .357    .347
    .344    .324    .301    .295    .285    .269    .272    .265    .259    .259
    .262    .265    .275    .278    .285    .305    .318    .331    .351    .377
    .403    .423    .452    .479    .501    .547    .584    .606    .656    .698
    .734    .787    .823    .853    .892    .925    .958   1.003    1.04   1.079
   1.118   1.145   1.181   1.213    1.25   1.289   1.328   1.368   1.407   1.443
   1.479   1.515   1.551   1.587    1.62   1.653   1.683   1.715   1.735   1.761
   1.794   1.817    1.84   1.863   1.883   1.909   1.922   1.938   1.945   1.948
   1.955   1.958   1.961   1.965   1.958   1.961   1.955   1.945   1.932   1.929
   1.922   1.912   1.899   1.883    1.87    1.85   1.827   1.814   1.794   1.768
   1.755   1.725   1.702   1.683    1.66    1.64   1.617   1.587   1.561   1.532
   1.509   1.489   1.466   1.443   1.414   1.377   1.341   1.305   1.279   1.253
   1.233   1.207    1.19   1.174   1.161   1.125   1.122   1.102   1.085   1.072
   1.049   1.092   1.043   1.007       1   1.036    1.01   1.013   1.013    1.01
   1.013   1.013   1.023   1.036   1.046   1.059   1.076   1.092   1.108   1.128
   1.151   1.174     1.2   1.227   1.253   1.282   1.315   1.345     1.4   1.427
   1.361   1.502   1.509   1.663   1.617   1.627   1.706   1.712   1.761   1.814
    1.87   1.879   1.925   1.961    2.06   2.132   2.214   2.303   2.365   2.414
   2.411   2.434    2.45    2.48   2.555   2.634   2.693   2.742   2.709   2.788
    2.88   2.959   2.926   2.939   2.936   3.008   2.998   3.018   3.028   3.106
   3.054   3.018   3.106   3.182   3.097   3.084   3.166   3.211    3.28   3.336
   3.349   3.349   3.366   3.366   3.303   3.303   3.303   3.339   3.303   3.297
   3.271   3.244   3.198   3.146   3.143   3.087   3.087     3.1    3.09   3.028
   2.995   3.061   3.064    3.09   3.106   3.051   3.044   3.106   3.106   3.182
   3.238   3.192   3.156   3.152   3.169   3.211   3.202   3.169   3.238    3.29
   3.234   3.297    3.33   3.326   3.349   3.385   3.375   3.366   3.412   3.349
   3.418   3.307   3.257   3.267   3.303   3.336   3.313   3.326    3.28    3.32
   3.343   3.343   3.336   3.336   3.307   3.343   3.303    3.33   3.372   3.405
    3.48   3.533   3.559     3.7   3.687    3.73   3.723   3.868   3.881   3.963
   3.894   3.999   3.953   4.015   4.038   4.015   4.038   4.068   4.051   4.064
   4.032   4.084   4.143   4.173   4.274   4.311    4.33   4.353   4.396   4.422
   4.468   4.537   4.527   4.478   4.504    4.54   4.537   4.534   4.494   4.491
   4.465   4.356   4.281   4.265   4.232   4.199   4.166   4.146   4.071   4.028
   3.989   3.946   3.907   3.861   3.815   3.763    3.71   3.638   3.595   3.579
   3.513   3.467   3.398   3.336   3.271   3.205   3.133   3.097   3.038   2.969
   2.883   2.798   2.703   2.618   2.565     2.5    2.45   2.408   2.362   2.303
   2.244   2.185   2.125   2.057   1.975   1.909    1.85    1.82   1.771   1.706
   1.646   1.601   1.564   1.528   1.492   1.459     1.4   1.371   1.335   1.295
    1.25    1.21   1.181   1.154   1.125   1.108   1.053    .977    .948    .898
    .882    .866    .836     .78    .748    .705    .682    .679    .679    .692
    .675    .626    .593    .577    .567    .574    .554    .551    .557    .561
    .528    .505    .495    .479    .452    .462    .492    .518    .564    .561
    .564    .587    .616    .616    .669    .702    .721    .751    .761    .764
    .823    .859    .882    .905    .925    .921    .918    .935    .954     .98
   1.007   1.013   1.036    1.04   1.036    1.04   1.069   1.092   1.095   1.089
   1.085   1.105   1.115   1.099   1.082   1.076   1.043   1.026   1.007    .994
    .977    .961    .944    .925    .902    .889    .859    .843    .836    .807
    .784    .771    .731    .705    .688    .672    .639    .616    .587    .564
    .538    .521    .511    .485    .459    .433     .41    .377    .354    .318
    .288    .259    .219    .183     .15    .121    .098    .072    .042    .009
       0       0       0       0       0       0       0       0       0       0
       0       0       0       0       0       0       0       0       0       0
       0       0       0       0       0       0    .032    .068    .111    .147
    .187    .232    .278    .331    .387    .429    .475    .518    .564    .616
    .666    .711    .764    .813    .856    .898    .941    .994    1.04   1.095
   1.141   1.184   1.227   1.256   1.282   1.328   1.361   1.397   1.423   1.453
   1.482   1.512   1.538   1.568   1.591   1.614   1.637   1.653   1.673   1.696
   1.709   1.729   1.745   1.755   1.771   1.788   1.797   1.811   1.817   1.824
   1.827   1.824   1.827   1.824    1.82   1.811   1.794   1.778   1.765   1.745
   1.725   1.696   1.669   1.646   1.607   1.571   1.538   1.499   1.456    1.41
   1.361   1.322   1.282   1.243     1.2   1.164   1.112   1.066    1.02    .967
    .931    .902    .856    .813    .777    .734    .705    .679    .639    .603
    .567    .538    .501    .475    .449    .423    .393    .364    .344    .328
    .308    .285    .265    .236    .223    .209    .196     .18    .167    .147
    .134    .127    .114    .114    .114    .121    .118    .124    .127    .137
    .157     .18    .196    .219    .249    .282    .314    .337     .37     .41
    .449    .488    .528     .57    .613    .659    .695    .741    .787     .83
    .866    .915    .974   1.003   1.049   1.095   1.131   1.171   1.223   1.253
   1.289   1.332   1.354   1.381   1.423    1.45   1.476   1.505   1.525   1.542
   1.561   1.587   1.601   1.624   1.637   1.643    1.66   1.676   1.683   1.709
   1.712   1.712   1.709   1.709   1.719   1.732   1.729   1.722   1.715   1.709
   1.706   1.702   1.692   1.679   1.663   1.643   1.633   1.617   1.604   1.571
   1.538   1.505   1.466   1.437    1.41   1.368   1.332   1.292    1.24     1.2
   1.161   1.122   1.079   1.036    .997    .961    .928    .892    .856    .833
    .797    .764    .738    .708    .675    .649    .616    .584    .564    .541
    .521    .495    .469    .449    .426    .413     .41      .4     .38    .377
     .36    .347    .337    .334    .328    .321    .324    .324    .328    .334
    .347    .357    .377    .387      .4    .419    .442    .479    .518    .544
     .57    .616    .662    .702    .744     .79     .83    .872    .915    .958
    1.01   1.072   1.122   1.161   1.204    1.24   1.279   1.322   1.368   1.404
   1.437   1.473   1.509   1.538   1.571   1.601   1.633   1.663   1.686   1.709
   1.732   1.748   1.771   1.791   1.814    1.83    1.85   1.873   1.893   1.902
   1.919   1.938   1.942   1.955   1.968   1.975   1.981   1.975   1.968   1.978
   1.971   1.955   1.942   1.932   1.925   1.912   1.889   1.863    1.84   1.817
   1.791   1.765   1.725   1.689   1.653    1.61   1.564   1.528   1.489   1.446
    1.41   1.374   1.328   1.289   1.253   1.213   1.177   1.135   1.095   1.053
    1.01    .974    .928    .895    .869    .836    .797    .774    .741    .711
    .682    .649     .62      .6    .577    .547    .521    .498    .475    .449
    .429    .419     .41    .396    .387    .377    .367     .36    .351    .347
    .347    .351    .347    .367    .377     .39    .403    .423    .446    .472
    .501    .534     .57      .6    .633    .659    .692    .738    .784     .82
    .869    .915    .954       1   1.056   1.112   1.161   1.217   1.263   1.302
   1.361   1.407    1.45   1.492   1.532   1.581    1.62   1.653   1.683   1.709
   1.742   1.778   1.801   1.834   1.856   1.879   1.902   1.929   1.955   1.984
   2.001   2.021   2.037   2.053    2.07   2.086   2.096   2.109   2.116   2.129
   2.135   2.145   2.152   2.155   2.155   2.152   2.142   2.135   2.125   2.112
   2.099    2.08   2.066   2.047   2.027   2.004   1.978   1.952   1.922   1.889
   1.856    1.82   1.781   1.745   1.706   1.666   1.627   1.584   1.542   1.496
   1.456   1.417   1.374   1.328   1.292   1.253   1.217   1.181   1.145   1.108
   1.069   1.033       1    .967    .941    .915    .892    .869    .843    .813
     .79    .767    .741    .725    .708    .685    .666    .652    .636    .626
    .616     .61      .6    .593    .587    .587     .59     .59    .593    .603
    .613    .626    .643    .662    .692    .718    .748     .78    .816    .853
    .889    .925    .964   1.007   1.046   1.089   1.135   1.181   1.213   1.243
   1.286   1.325   1.371   1.423   1.463   1.505   1.548   1.584   1.624   1.663
   1.699   1.738   1.771   1.801    1.83   1.863   1.893   1.925   1.952   1.981
   2.004   2.024   2.043   2.066   2.086   2.099   2.116   2.129   2.145   2.155
   2.165   2.175   2.188   2.191   2.194   2.201   2.201   2.201   2.198   2.188
   2.178   2.168   2.148   2.135   2.119   2.099   2.076   2.053    2.03   2.007
   1.978   1.948   1.916   1.883   1.847   1.814   1.778   1.735   1.696   1.656
   1.617   1.584   1.545   1.505   1.469   1.427   1.377   1.338   1.302   1.269
   1.236   1.207   1.177   1.145   1.102   1.063   1.036    1.01     .99    .961
    .938    .918    .895    .866    .846     .83    .807    .784    .764    .744
    .728    .711    .695    .682    .672    .659    .646    .639    .626     .62
    .623     .62    .623    .626    .633    .646    .666    .675    .695    .721
    .754    .784    .816    .853    .892    .928    .967    1.01   1.063   1.115
   1.158   1.204   1.253   1.299   1.345   1.394   1.443   1.492   1.535   1.574
    1.62   1.666   1.712   1.751   1.788   1.824   1.863   1.893   1.922   1.955
   1.984   2.017   2.037   2.057   2.083   2.103   2.122   2.142   2.162   2.181
   2.194   2.211   2.227   2.244   2.257   2.263   2.276    2.28   2.283   2.283
   2.286   2.286   2.283   2.283   2.273   2.263   2.253    2.24   2.227   2.211
   2.191   2.171   2.152   2.122   2.096   2.063   2.034   2.001   1.968   1.932
   1.899   1.863   1.824   1.784   1.748   1.706   1.669   1.627   1.591   1.545
   1.502   1.463    1.42   1.377   1.341   1.302   1.269    1.24    1.21   1.181
   1.148   1.118   1.089   1.059   1.026   1.003    .971    .948    .921    .898
    .875    .853     .83     .81     .79    .767    .748    .731    .715    .702
    .685    .675    .672    .666    .666    .669    .669    .679    .685    .692
    .711    .731    .754    .777    .807    .839    .869    .895    .928    .967
   1.003   1.053   1.095   1.135   1.171   1.204   1.236   1.276   1.322   1.371
   1.423   1.466   1.502   1.545   1.591   1.633   1.673   1.715   1.751   1.788
   1.827   1.853   1.886   1.919   1.945   1.975   2.004   2.024   2.053    2.07
   2.089   2.103   2.119   2.132   2.148   2.162   2.171   2.178   2.188   2.198
   2.204   2.208   2.214   2.217   2.211   2.204   2.201   2.194   2.188   2.171
   2.158   2.145   2.125   2.106   2.086   2.063    2.04   2.011   1.978   1.945
   1.916   1.883    1.85   1.817   1.784   1.748   1.706   1.663   1.627   1.587
   1.548   1.519   1.482   1.443     1.4   1.361   1.325   1.286    1.25   1.217
   1.184   1.151   1.118   1.079   1.049   1.013    .977    .951    .925    .902
    .882    .856    .833    .813     .79    .771    .744    .725    .705    .688
    .672    .652    .633    .623     .61      .6    .597     .59    .593    .593
    .593    .593     .61     .62    .633    .656    .679    .705    .738    .771