Flow Title=Irene2011_Updated
Program Version=5.03
Use Restart= 0
Initial Flow Loc=Potomac         ,Upper           ,187386.9,1810
Initial Flow Loc=Potomac         ,Lower           ,166063.4,8780
Initial Flow Loc=Anacostia       ,Lower           ,17293.75,63
Boundary Location=Potomac        ,Upper           ,187386.9,        ,                ,                ,                ,                
Interval=15MIN
Flow Hydrograph= 2011
      7280       7280       7280       7280       7280       7370       7280       7280       7280       7280
      7280       7280       7280       7200       7280       7200       7200       7200       7200       7200
      7200       7120       7200       7120       7120       7200       7120       7120       7120       7120
      7120       7120       7120       7120       7120       7030       7120       7120       7030       7030
      7030       7030       7030       7030       7030       7030       6950       6950       6950       6950
      6950       6950       6950       6950       6870       6950       6950       6950       6950       7030
      7030       6950       7030       7030       6950       6950       6950       6950       6950       6950
      6950       6950       6870       6870       6870       6870       6870       6870       6870       6870
      6870       6790       6710       6710       6710       6710       6630       6630       6630       6710
      6630       6630       6630       6630       6550       6550       6550       6630       6550       6550
      6550       6550       6550       6550       6550       6550       6550       6550       6550       6550
      6470       6550       6470       6470       6470       6470       6390       6470       6470       6470
      6470       6390       6390       6390       6390       6390       6310       6310       6310       6390
      6470       6470       6470       6470       6470       6470       6470       6470       6390       6390
      6470       6390       6390       6390       6390       6390       6390       6390       6470       6310
      6390       6310       6390       6390       6390       6390       6390       6390       6390       6390
      6390       6390       6470       6550       6390       6390       6390       6390       6390       6390
      6390       6390       6390       6230       6150       6150       6150       6150       6080       6080
      6150       6080       6080       6080       6000       6080       6080       6000       6080       6000
      6000       6080       6150       6150       6150       6150       6150       6150       6150       6230
      6150       6230       6230       6150       6150       6150       6150       6150       6150       6150
      6150       6150       6150       6150       6150       6150       6150       6150       6150       6150
      6150       6150       6150       6080       6150       6150       6150       6080       6080       6080
      6080       6080       6080       6080       6080       5930       6080       6000       6080       6000
      6000       6000       6000       6080       6000       6080       6000       6080
DSS Path=
Use DSS=False
Use Fixed Start Time=True
Fixed Start Date/Time=26AUG2011,0:00
Is Critical Boundary=False
Critical Boundary Flow=
Boundary Location=Potomac         ,Lower           ,8821.243,        ,                ,                ,                ,                
Interval=6MIN
Stage Hydrograph= 5040
     -0.98      -0.92      -0.85      -0.77      -0.69      -0.61      -0.54      -0.46      -0.36      -0.28
      -0.2      -0.12      -0.05       0.03       0.11        0.2       0.26       0.34       0.39       0.46
      0.52       0.58       0.64       0.68       0.73       0.78       0.82       0.86       0.89       0.92
      0.95       0.97        1.0       1.02       1.02       1.05       1.04       1.04       1.04       1.03
      1.02       0.99       0.97       0.94       0.91       0.88       0.84        0.8       0.77       0.71
      0.66       0.62       0.56       0.51       0.45        0.4       0.34       0.29       0.24       0.17
      0.11       0.06        0.0      -0.05      -0.11      -0.18      -0.23      -0.28      -0.35      -0.41
     -0.46      -0.52      -0.57      -0.63      -0.69      -0.74       -0.8      -0.85      -0.89      -0.95
      -1.0      -1.05       -1.1      -1.15       -1.2      -1.24       -1.3      -1.34      -1.38      -1.42
     -1.45       -1.5      -1.53      -1.57       -1.6      -1.64      -1.67       -1.7      -1.71      -1.74
     -1.77      -1.79      -1.81      -1.83      -1.84      -1.85      -1.85      -1.85      -1.85      -1.82
     -1.79      -1.77      -1.73       -1.7      -1.65      -1.59      -1.51      -1.45      -1.37      -1.29
      -1.2      -1.11      -1.02      -0.92      -0.82      -0.73      -0.63      -0.54      -0.44      -0.34
     -0.24      -0.14      -0.05       0.04       0.13       0.21        0.3       0.38       0.47       0.54
       0.6       0.67       0.75        0.8       0.87       0.93       0.98       1.02       1.07       1.12
      1.16        1.2       1.25       1.28        1.3       1.34       1.35       1.38       1.38        1.4
       1.4       1.41       1.42       1.39       1.38       1.36       1.34        1.3       1.28       1.23
       1.2       1.14       1.09       1.05        1.0       0.93       0.89       0.84       0.77       0.72
      0.65        0.6       0.53       0.48       0.41       0.36       0.29       0.23       0.18       0.11
      0.04      -0.02      -0.08      -0.13       -0.2      -0.26      -0.31      -0.37      -0.44       -0.5
     -0.56      -0.61      -0.66      -0.71      -0.77      -0.82      -0.86      -0.91      -0.96       -1.0
     -1.05      -1.08      -1.12      -1.17       -1.2      -1.24      -1.27       -1.3      -1.33      -1.35
     -1.38       -1.4      -1.43      -1.44      -1.45      -1.47       -1.5       -1.5      -1.53      -1.54
     -1.54      -1.56      -1.57      -1.57      -1.59      -1.59      -1.59      -1.59      -1.59      -1.58
     -1.56      -1.55      -1.53       -1.5      -1.45      -1.42      -1.37      -1.31      -1.26      -1.18
      -1.1      -1.03      -0.95      -0.87      -0.78       -0.7      -0.62      -0.53      -0.44      -0.36
     -0.27      -0.18       -0.1        0.0       0.08       0.16       0.23       0.31       0.38       0.46
      0.53       0.59       0.66       0.71       0.77       0.83       0.88       0.91       0.96       0.98
      1.01       1.03       1.06       1.08       1.09        1.1       1.11       1.11       1.11        1.1
      1.09       1.09       1.06       1.05       1.02        1.0       0.97       0.94       0.91       0.88
      0.83        0.8       0.75        0.7       0.65       0.61       0.55       0.49       0.44       0.38
      0.33       0.27       0.21       0.14       0.09       0.03      -0.03      -0.09      -0.15      -0.22
     -0.28      -0.33      -0.38      -0.45      -0.51      -0.55      -0.61      -0.67      -0.72      -0.75
     -0.81      -0.86       -0.9      -0.96      -0.99      -1.04      -1.08      -1.12      -1.16      -1.19
     -1.22      -1.27      -1.31      -1.35      -1.38      -1.41      -1.46      -1.47       -1.5      -1.53
     -1.54      -1.56      -1.57      -1.59       -1.6      -1.62      -1.62      -1.63      -1.62      -1.62
     -1.58      -1.57      -1.54      -1.49      -1.45       -1.4      -1.31      -1.26      -1.17      -1.11
     -1.01      -0.94      -0.84      -0.73      -0.64      -0.54      -0.45      -0.34      -0.26      -0.16
     -0.04       0.04       0.14       0.24       0.32       0.42       0.49       0.58       0.65       0.74
       0.8       0.86       0.94        1.0       1.08       1.12       1.17       1.22       1.27       1.33
      1.36       1.41       1.45       1.48       1.52       1.55       1.59        1.6       1.61       1.61
      1.63       1.63       1.63       1.63       1.62        1.6       1.58       1.54       1.52       1.49
      1.45       1.44        1.4       1.37       1.33       1.27       1.23       1.18       1.14       1.08
      1.04       0.98       0.92       0.87       0.81       0.74       0.69       0.63       0.58       0.52
      0.46       0.42       0.34       0.27       0.22       0.18       0.13       0.05       0.01      -0.06
     -0.13      -0.18      -0.24      -0.29      -0.34      -0.41      -0.45      -0.49      -0.53      -0.56
      -0.6      -0.64      -0.66       -0.7      -0.71      -0.73      -0.75      -0.79       -0.8      -0.85
     -0.85      -0.88      -0.92      -0.96      -0.99      -1.01      -1.05      -1.09      -1.12      -1.15
     -1.16      -1.19      -1.21      -1.22      -1.22      -1.22       -1.2      -1.19      -1.17      -1.16
     -1.13       -1.1      -1.05      -1.02      -0.99      -0.95      -0.88      -0.83      -0.77      -0.69
     -0.64      -0.58       -0.5      -0.42      -0.34      -0.26      -0.19      -0.09       0.01       0.09
      0.17       0.27       0.34       0.44       0.51       0.59       0.67       0.76       0.83       0.91
      0.97       1.04        1.1       1.16       1.21       1.26       1.31       1.35       1.39       1.43
      1.45       1.49       1.51       1.52       1.54       1.55       1.55       1.55       1.55       1.54
      1.52       1.51       1.47       1.45       1.41       1.39       1.35       1.31       1.27       1.23
      1.18       1.14       1.09       1.04       0.98       0.92       0.86       0.81       0.74       0.68
      0.61       0.55       0.48       0.41       0.36       0.28       0.21       0.14       0.08       0.01
     -0.06      -0.12      -0.19      -0.25      -0.31      -0.37      -0.42      -0.49      -0.54       -0.6
     -0.66      -0.71      -0.77      -0.82      -0.87      -0.93      -0.97      -1.02      -1.06       -1.1
     -1.14      -1.18      -1.23      -1.26      -1.29      -1.31      -1.35      -1.37       -1.4      -1.41
     -1.45      -1.47      -1.47      -1.49      -1.52      -1.55      -1.55      -1.56      -1.57      -1.58
     -1.54      -1.54      -1.49      -1.47      -1.39      -1.31      -1.25      -1.16      -1.08      -0.98
DSS Path=
Use DSS=False
Use Fixed Start Time=True
Fixed Start Date/Time=26AUG2011,0:00
Is Critical Boundary=False
Critical Boundary Flow=
Boundary Location=Potomac         ,Lower           ,17293.75,        ,                ,                ,                ,                
Interval=15MIN
Flow Hydrograph= 2016
        25         25         25         25         25         25         25         25         25         25
        25         25         25         25         25         25         25         25         25         25
        25         25         25         25         25         25         25         25         27         25
        25         25         25         25         25         25         25         25         25         25
        25         25         25         25         25         25         25         25         25         25
        25         25         25         25         25         25         25         25         25         25
        25         25         25         25         25         25         25         25         25         25
        25         25         25         25         25         25         25         25         24         24
        25         25         25         24         25         27         25         26         24         24
        24         25         25         24         24         25         25         24         24         24
        24         24         25         24         24         25         25         24         24         24
        24         24         24         25         25         24         25         25         24         25
        25         25         25         25         25         25         25         24         25         25
        25         25         25         25         25         25         25         24         25         26
        24         25         24         25         24         24         25         25         25         25
        25         24         25         24         24         24         24         25         25         25
        24         24         25         24         25         25         25         24         24         24
        24         24         24         24         24         24         24         24         24         24
        24         24         24         24         24         24         24         24         24         24
        24         25         25         26         25         25         25         25         25         25
        25         25         25         25         25         25         24         25         25         24
        24         24         24         24         24         24         24         24         24         24
        24         24         24         24         24         24         24         24         24         24
        24         24         24         24         24         24         24         24         24         24
        24         24         24         24         24         24         24         24         24         24
        24         24         24         24         24         25         24         24         24         24
        24         24         24         24         24         24         25         24         24         24
        24         24         24         24         24         24         24         24         24         24
        24         24         24         24         24         24         24         24         24         24
        25         24         24         24         24         24         24         24         24         24
        24         24         24         24         24         24         24         24         24         24
        24         24         25         24         24         24         24         24         24         24
        24         24         24         24         24         24         24         24         24         24
        24         24         24         24         24         23         24         24         24         25
        24         24         23         23         24         24         23         24         24         24
        23         24         23         24         24         24         24         24         24         24
        24         24         24         24         24         24         24         24         24         24
        24         24         24         24         24         24         24         24         24         24
        24         24         24         24         25         24         24         24         24         24
        24         24         24         24         24         24         24         24         24         24
        24         24         24         24         24         24         24         24         24         24
        24         24         24         24         24         24         24         24         24         24
        24         24         24         24         24         24         24         24         24         24
        24         24         24         24         25         24         24         24         24         24
        24         26         24         24         24         24         24         24         24         24
        24         24         24         24         24         24         24         24         24         24
        24         24         24         24         24         24         24         24         24         24
        24         24         24         24         24         24         24         24         24         24
        24         24         24         24         24         24         24         24         24         24
        24         24         24         24         24         24         24         24         25         24
        24         24         24         25         24         24         24         24         24         24
        24         24         24         24         24         24         24         24         25         25
        24         25         25         25         25         25         25         25         25         25
        25         25         25         24         24         25         25         25         25         25
        25         25         25         25         25         25         25         25         24         25
        25         25         25         25         25         25         25         25         25         25
        25         25         25         25         25         25         26         26         25         26
        26         26         26         26         26         26         26         26         26         26
        26         26         26         26         26         26         25         26         26         26
        26         26         26         26         26         26         25         26         26         27
        26         26         26         26         26         26         26         26         25         26
        26         27         26         26         26         26         26         26         26         26
        26         26         25         26         26         25         25         25         25         25
        25         26         25         25         25         25         25         25         25         25
        25         25         25         25         25         25         25         25         25         25
        25         25         25         25         25         25         25         25         25         25
        25         25         25         25         25         25         25         25         25         25
        25         25         25         25         25         25         25         25         25         25
        25         25         25         25         25         25         25         25         25         25
        25         25         25         25         25         25         25         25         25         25
        25         25         25         25         25         25         25         25         25         25
        25         25         25         25         24         25         24         24         25         25
        25         25         24         25         25         25         25         25         25         25
        25         25         25         25         25         25         25         25
SS Path=
Use DSS=False
Use Fixed Start Time=True
Fixed Start Date/Time=26AUG2011,0:00
Is Critical Boundary=False
Critical Boundary Flow= 